[TITLE]
;;Project Title/Notes

[OPTIONS]
;;Option             Value
FLOW_UNITS           LPS
INFILTRATION         HORTON
FLOW_ROUTING         DYNWAVE
LINK_OFFSETS         ELEVATION
MIN_SLOPE            0
ALLOW_PONDING        NO
SKIP_STEADY_STATE    NO

START_DATE           01/29/2010
START_TIME           00:00:00
REPORT_START_DATE    01/29/2010
REPORT_START_TIME    00:00:00
END_DATE             02/01/2010
END_TIME             00:00:00
SWEEP_START          01/01
SWEEP_END            12/31
DRY_DAYS             0
REPORT_STEP          00:01:00
WET_STEP             00:01:00
DRY_STEP             00:01:00
ROUTING_STEP         0:00:10 

INERTIAL_DAMPING     PARTIAL
NORMAL_FLOW_LIMITED  BOTH
FORCE_MAIN_EQUATION  D-W
VARIABLE_STEP        0.75
LENGTHENING_STEP     0
MIN_SURFAREA         0
MAX_TRIALS           0
HEAD_TOLERANCE       0
SYS_FLOW_TOL         5
LAT_FLOW_TOL         5
MINIMUM_STEP         0.5
THREADS              1

[EVAPORATION]
;;Data Source    Parameters
;;-------------- ----------------
CONSTANT         0.0
DRY_ONLY         NO

[RAINGAGES]
;;Name           Format    Interval SCF      Source    
;;-------------- --------- ------ ------ ----------
1                INTENSITY 0:15     1.0      TIMESERIES TIMESERIES1     

[SUBCATCHMENTS]
;;Name           Rain Gage        Outlet           Area     %Imperv  Width    %Slope   CurbLen  SnowPack        
;;-------------- ---------------- ---------------- -------- -------- -------- -------- -------- ----------------
16               1                nodo216260       200      25       500      0.5      0                        
17               1                nodo215412       200      25       500      0.5      0                        
18               1                nodo216730       200      25       500      0.5      0                        
19               1                nodo216524       200      25       500      0.5      0                        
20               1                nodo217510       200      25       500      0.5      0                        
21               1                J1               200      25       500      0.5      0                        
22               1                nodo216676       200      25       500      0.5      0                        
23               1                nodo215970       200      25       500      0.5      0                        
24               1                nodo216410       200      25       500      0.5      0                        
25               1                nodo215849       200      25       500      0.5      0                        
26               1                nodo215875       200      25       500      0.5      0                        
27               1                nodo216605       200      25       500      0.5      0                        

[SUBAREAS]
;;Subcatchment   N-Imperv   N-Perv     S-Imperv   S-Perv     PctZero    RouteTo    PctRouted 
;;-------------- ---------- ---------- ---------- ---------- ---------- ---------- ----------
16               0.01       0.1        0.05       0.05       25         OUTLET    
17               0.01       0.1        0.05       0.05       25         OUTLET    
18               0.01       0.1        0.05       0.05       25         OUTLET    
19               0.01       0.1        0.05       0.05       25         OUTLET    
20               0.01       0.1        0.05       0.05       25         OUTLET    
21               0.01       0.1        0.05       0.05       25         OUTLET    
22               0.01       0.1        0.05       0.05       25         OUTLET    
23               0.01       0.1        0.05       0.05       25         OUTLET    
24               0.01       0.1        0.05       0.05       25         OUTLET    
25               0.01       0.1        0.05       0.05       25         OUTLET    
26               0.01       0.1        0.05       0.05       25         OUTLET    
27               0.01       0.1        0.05       0.05       25         OUTLET    

[INFILTRATION]
;;Subcatchment   MaxRate    MinRate    Decay      DryTime    MaxInfil  
;;-------------- ---------- ---------- ---------- ---------- ----------
16               3.0        0.5        4          7          0         
17               3.0        0.5        4          7          0         
18               3.0        0.5        4          7          0         
19               3.0        0.5        4          7          0         
20               3.0        0.5        4          7          0         
21               3.0        0.5        4          7          0         
22               3.0        0.5        4          7          0         
23               3.0        0.5        4          7          0         
24               3.0        0.5        4          7          0         
25               3.0        0.5        4          7          0         
26               3.0        0.5        4          7          0         
27               3.0        0.5        4          7          0         

[JUNCTIONS]
;;Name           Elevation  MaxDepth   InitDepth  SurDepth   Aponded   
;;-------------- ---------- ---------- ---------- ---------- ----------
nodo215287       87.753     0.7        0          0          0         
nodo215288       88.186     0.5        0          0          0         
nodo215289       92.565     0.5        0          0          0         
nodo215290       97.003     0.8        0          0          0         
nodo215291       100.202    0.4        0          0          0         
nodo215292       103.620    0.7        0          0          0         
nodo215293       104.872    0.6        0          0          0         
nodo215294       109.136    0.6        0          0          0         
nodo215295       113.737    0.8        0          0          0         
nodo215296       114.356    0.5        0          0          0         
nodo215297       111.854    0.6        0          0          0         
nodo215298       116.263    2.3        0          0          0         
nodo215299       131.192    1.6        0          0          0         
nodo215300       132.184    0.9        0          0          0         
nodo215301       133.053    0.9        0          0          0         
nodo215302       133.751    0.9        0          0          0         
nodo215303       133.947    0.8        0          0          0         
nodo215304       135.389    1.6        0          0          0         
nodo215305       134.700    1.6        0          0          0         
nodo215306       133.752    1.6        0          0          0         
nodo215307       139.863    1.8        0          0          0         
nodo215308       140.874    2.05       0          0          0         
nodo215309       141.524    2.3        0          0          0         
nodo215310       141.568    1.4        0          0          0         
nodo215311       143.874    1.3        0          0          0         
nodo215312       142.700    1.3        0          0          0         
nodo215313       143.253    1.75       0          0          0         
nodo215314       145.542    1.9        0          0          0         
nodo215315       129.508    0.6        0          0          0         
nodo215316       130.536    1.6        0          0          0         
nodo215317       128.114    0.75       0          0          0         
nodo215318       133.222    0.85       0          0          0         
nodo215319       135.227    1.7        0          0          0         
nodo215320       135.627    1.3        0          0          0         
nodo215321       125.007    1.25       0          0          0         
nodo215322       123.580    1.5        0          0          0         
nodo215323       119.202    1.45       0          0          0         
nodo215324       112.870    4.9        0          0          0         
nodo215325       115.464    2.3        0          0          0         
nodo215326       115.037    2.1        0          0          0         
nodo215327       113.976    2          0          0          0         
nodo215328       112.647    3.1        0          0          0         
nodo215330       113.289    3.6        0          0          0         
nodo215331       113.749    2.6        0          0          0         
nodo215332       113.994    1.7        0          0          0         
nodo215333       202.660    1.1        0          0          0         
nodo215334       198.243    1.3        0          0          0         
nodo215335       190.806    1.3        0          0          0         
nodo215336       187.898    1.45       0          0          0         
nodo215337       186.353    1.9        0          0          0         
nodo215338       184.669    1.8        0          0          0         
nodo215339       182.640    1.4        0          0          0         
nodo215340       180.651    1.4        0          0          0         
nodo215341       178.748    1.4        0          0          0         
nodo215342       176.626    1.4        0          0          0         
nodo215343       169.759    1.4        0          0          0         
nodo215344       168.089    1.4        0          0          0         
nodo215345       165.754    1.4        0          0          0         
nodo215346       164.574    1.4        0          0          0         
nodo215347       163.406    1.4        0          0          0         
nodo215348       161.476    1.4        0          0          0         
nodo215349       157.987    1.4        0          0          0         
nodo215350       156.647    1.2        0          0          0         
nodo215351       155.675    1.1        0          0          0         
nodo215352       153.858    0.75       0          0          0         
nodo215353       152.832    0.5        0          0          0         
nodo215354       151.918    0.6        0          0          0         
nodo215355       148.783    1.4        0          0          0         
nodo215356       147.480    1.5        0          0          0         
nodo215357       145.783    1.5        0          0          0         
nodo215358       144.286    1.6        0          0          0         
nodo215359       140.700    1.9        0          0          0         
nodo215360       140.494    1.9        0          0          0         
nodo215361       141.358    0.8        0          0          0         
nodo215362       142.621    1.4        0          0          0         
nodo215363       145.186    1.5        0          0          0         
nodo215364       137.604    1.5        0          0          0         
nodo215365       136.513    1.4        0          0          0         
nodo215366       133.619    1.4        0          0          0         
nodo215367       126.797    1.3        0          0          0         
nodo215368       125.473    1.3        0          0          0         
nodo215369       122.169    1.4        0          0          0         
nodo215370       120.798    1.4        0          0          0         
nodo215371       114.442    1.3        0          0          0         
nodo215372       107.709    0.6        0          0          0         
nodo215373       103.506    1.3        0          0          0         
nodo215374       101.835    1.05       0          0          0         
nodo215375       101.112    1.2        0          0          0         
nodo215376       90.302     1.4        0          0          0         
nodo215377       89.115     1.4        0          0          0         
nodo215378       86.528     1.1        0          0          0         
nodo215379       84.989     1.1        0          0          0         
nodo215380       84.744     0.8        0          0          0         
nodo215381       83.682     0.9        0          0          0         
nodo215382       82.711     0.9        0          0          0         
nodo215383       82.710     0.6        0          0          0         
nodo215384       82.536     1          0          0          0         
nodo215385       88.839     0.6        0          0          0         
nodo215386       88.607     0.6        0          0          0         
nodo215387       88.553     0.7        0          0          0         
nodo215388       87.466     2          0          0          0         
nodo215389       103.270    0.8        0          0          0         
nodo215390       104.063    1.4        0          0          0         
nodo215391       93.101     14.7       0          0          0         
nodo215392       107.973    1.4        0          0          0         
nodo215393       109.907    1.4        0          0          0         
nodo215394       111.391    1.4        0          0          0         
nodo215395       112.404    1.7        0          0          0         
nodo215396       113.382    2.3        0          0          0         
nodo215397       113.973    2.2        0          0          0         
nodo215398       114.386    2.1        0          0          0         
nodo215399       114.614    2.1        0          0          0         
nodo215400       115.236    1.8        0          0          0         
nodo215401       115.579    1.5        0          0          0         
nodo215402       115.966    1.2        0          0          0         
nodo215403       116.473    1.1        0          0          0         
nodo215404       117.113    0.9        0          0          0         
nodo215405       119.176    0.7        0          0          0         
nodo215406       119.042    1.3        0          0          0         
nodo215407       118.963    2          0          0          0         
nodo215408       118.780    2.4        0          0          0         
nodo215409       120.359    1.1        0          0          0         
nodo215410       121.110    1.1        0          0          0         
nodo215411       121.865    1.1        0          0          0         
nodo215412       122.521    1.2        0          0          0         
nodo215413       127.393    1.2        0          0          0         
nodo215414       129.964    1.1        0          0          0         
nodo215415       133.921    0.8        0          0          0         
nodo215416       132.961    1.4        0          0          0         
nodo215417       137.423    1.1        0          0          0         
nodo215418       137.853    1.1        0          0          0         
nodo215419       138.812    1.1        0          0          0         
nodo215420       139.227    1.1        0          0          0         
nodo215421       139.837    1.1        0          0          0         
nodo215422       142.993    1.1        0          0          0         
nodo215423       141.569    1.2        0          0          0         
nodo215424       140.480    1.2        0          0          0         
nodo215425       254.661    1.5        0          0          0         
nodo215426       252.970    1.4        0          0          0         
nodo215427       251.366    1.4        0          0          0         
nodo215428       249.571    1.5        0          0          0         
nodo215429       247.918    1.1        0          0          0         
nodo215430       245.968    1.5        0          0          0         
nodo215431       244.276    1.7        0          0          0         
nodo215432       242.256    1.8        0          0          0         
nodo215433       240.195    1.9        0          0          0         
nodo215434       237.909    1.8        0          0          0         
nodo215435       236.276    1.4        0          0          0         
nodo215436       235.006    1.6        0          0          0         
nodo215437       233.485    1.6        0          0          0         
nodo215438       232.070    1.6        0          0          0         
nodo215439       230.503    1.6        0          0          0         
nodo215440       229.292    1.3        0          0          0         
nodo215441       206.266    1          0          0          0         
nodo215442       208.369    0.9        0          0          0         
nodo215443       214.019    0.8        0          0          0         
nodo215445       219.149    1.3        0          0          0         
nodo215446       215.575    1.1        0          0          0         
nodo215447       219.149    1.3        0          0          0         
nodo215448       186.111    1.3        0          0          0         
nodo215449       355.254    0.9        0          0          0         
nodo215450       354.144    0.7        0          0          0         
nodo215451       384.514    2.2        0          0          0         
nodo215452       377.463    0.7        0          0          0         
nodo215453       370.712    0.8        0          0          0         
nodo215454       367.136    0.7        0          0          0         
nodo215455       362.197    0.7        0          0          0         
nodo215456       358.966    0.7        0          0          0         
nodo215457       357.039    0.8        0          0          0         
nodo215458       355.879    0.7        0          0          0         
nodo215459       346.859    0.8        0          0          0         
nodo215460       330.004    0.3        0          0          0         
nodo215461       326.252    0.3        0          0          0         
nodo215462       324.417    0.3        0          0          0         
nodo215463       323.684    0.3        0          0          0         
nodo215464       323.114    0.3        0          0          0         
nodo215465       321.338    0.3        0          0          0         
nodo215466       314.244    4.8        0          0          0         
nodo215467       314.397    6.45       0          0          0         
nodo215468       311.941    4.8        0          0          0         
nodo215469       311.243    5.35       0          0          0         
nodo215470       310.157    0.6        0          0          0         
nodo215471       304.984    1.7        0          0          0         
nodo215472       316.027    5.35       0          0          0         
nodo215473       317.313    4.75       0          0          0         
nodo215474       318.850    4.4        0          0          0         
nodo215475       320.154    4.15       0          0          0         
nodo215476       321.936    4.05       0          0          0         
nodo215477       325.133    4.1        0          0          0         
nodo215478       326.641    4.35       0          0          0         
nodo215479       328.420    4.7        0          0          0         
nodo215480       329.723    4.55       0          0          0         
nodo215481       330.930    4.05       0          0          0         
nodo215482       332.435    3.25       0          0          0         
nodo215483       333.775    2.85       0          0          0         
nodo215484       334.989    2.65       0          0          0         
nodo215485       336.288    2.7        0          0          0         
nodo215486       339.103    2.6        0          0          0         
nodo215487       340.377    2.6        0          0          0         
nodo215488       341.959    2.55       0          0          0         
nodo215489       351.014    1.6        0          0          0         
nodo215490       352.442    1.6        0          0          0         
nodo215491       348.492    2.7        0          0          0         
nodo215492       338.960    0.4        0          0          0         
nodo215493       337.512    0.4        0          0          0         
nodo215494       337.358    0.4        0          0          0         
nodo215495       332.731    0.4        0          0          0         
nodo215496       330.961    1.1        0          0          0         
nodo215497       332.206    0.4        0          0          0         
nodo215498       332.533    0.5        0          0          0         
nodo215499       303.947    1.1        0          0          0         
nodo215500       303.602    1.2        0          0          0         
nodo215501       303.063    1.35       0          0          0         
nodo215502       302.549    1.5        0          0          0         
nodo215503       302.060    1.6        0          0          0         
nodo215504       301.615    1.7        0          0          0         
nodo215505       300.118    2.55       0          0          0         
nodo215506       297.623    2.7        0          0          0         
nodo215507       296.982    2.3        0          0          0         
nodo215508       297.970    0.8        0          0          0         
nodo215509       296.190    1.7        0          0          0         
nodo215510       295.735    1          0          0          0         
nodo215511       294.404    1.4        0          0          0         
nodo215512       293.189    1          0          0          0         
nodo215513       292.568    1.6        0          0          0         
nodo215514       291.785    1.5        0          0          0         
nodo215515       290.666    1.4        0          0          0         
nodo215516       289.428    1.5        0          0          0         
nodo215517       287.910    1.5        0          0          0         
nodo215518       286.666    1.4        0          0          0         
nodo215519       285.189    1.3        0          0          0         
nodo215520       284.936    0.7        0          0          0         
nodo215521       283.846    0.9        0          0          0         
nodo215522       281.301    1.3        0          0          0         
nodo215523       279.665    0.9        0          0          0         
nodo215524       278.226    0.9        0          0          0         
nodo215525       277.616    0.8        0          0          0         
nodo215526       275.951    1.2        0          0          0         
nodo215527       273.837    1.3        0          0          0         
nodo215528       272.119    1.5        0          0          0         
nodo215529       270.298    1.5        0          0          0         
nodo215530       269.463    1.3        0          0          0         
nodo215531       267.982    1.3        0          0          0         
nodo215532       267.343    0.8        0          0          0         
nodo215533       266.499    1.4        0          0          0         
nodo215534       265.208    1.5        0          0          0         
nodo215535       263.273    1.6        0          0          0         
nodo215536       261.544    1.5        0          0          0         
nodo215537       259.871    1.1        0          0          0         
nodo215538       256.183    1.4        0          0          0         
nodo215539       257.291    1.3        0          0          0         
nodo215540       258.480    1.3        0          0          0         
nodo215541       248.444    0.9        0          0          0         
nodo215542       251.784    1.6        0          0          0         
nodo215543       254.412    1.5        0          0          0         
nodo215544       257.583    0.9        0          0          0         
nodo215545       259.296    1          0          0          0         
nodo215546       262.904    1.2        0          0          0         
nodo215547       264.230    1.4        0          0          0         
nodo215548       267.736    1.5        0          0          0         
nodo215549       271.219    1.2        0          0          0         
nodo215550       377.563    0.8        0          0          0         
nodo215551       377.793    0.7        0          0          0         
nodo215552       330.084    1.15       0          0          0         
nodo215553       329.609    0.7        0          0          0         
nodo215554       329.036    0.8        0          0          0         
nodo215555       328.535    0.8        0          0          0         
nodo215556       327.761    0.8        0          0          0         
nodo215557       327.516    0.8        0          0          0         
nodo215558       327.512    0.8        0          0          0         
nodo215559       327.482    0.8        0          0          0         
nodo215560       327.110    0.8        0          0          0         
nodo215561       323.120    0.8        0          0          0         
nodo215562       320.227    1.2        0          0          0         
nodo215563       316.110    0.9        0          0          0         
nodo215564       312.054    1          0          0          0         
nodo215565       309.954    1.1        0          0          0         
nodo215566       307.625    0.6        0          0          0         
nodo215567       306.083    1          0          0          0         
nodo215568       302.890    1.9        0          0          0         
nodo215569       276.828    2          0          0          0         
nodo215570       324.110    0.8        0          0          0         
nodo215571       323.121    0.8        0          0          0         
nodo215572       321.212    0.5        0          0          0         
nodo215573       316.244    0.6        0          0          0         
nodo215574       314.137    0.45       0          0          0         
nodo215575       312.614    0.5        0          0          0         
nodo215576       311.147    0.6        0          0          0         
nodo215577       308.961    0.9        0          0          0         
nodo215578       307.129    0.9        0          0          0         
nodo215579       306.818    0.7        0          0          0         
nodo215580       306.690    0.4        0          0          0         
nodo215581       306.040    0.6        0          0          0         
nodo215582       305.885    0.5        0          0          0         
nodo215583       305.855    0.4        0          0          0         
nodo215584       304.879    1.1        0          0          0         
nodo215585       305.708    0.4        0          0          0         
nodo215586       302.639    1.1        0          0          0         
nodo215587       301.083    1          0          0          0         
nodo215588       298.423    0.9        0          0          0         
nodo215589       293.919    1          0          0          0         
nodo215590       291.706    0.9        0          0          0         
nodo215591       289.582    1          0          0          0         
nodo215592       288.658    0.9        0          0          0         
nodo215593       287.109    1          0          0          0         
nodo215594       285.500    0.9        0          0          0         
nodo215595       283.168    1          0          0          0         
nodo215596       280.013    1          0          0          0         
nodo215597       277.026    1.1        0          0          0         
nodo215598       274.995    1.2        0          0          0         
nodo215599       273.097    1.2        0          0          0         
nodo215600       270.941    1.2        0          0          0         
nodo215601       268.432    1.1        0          0          0         
nodo215602       0          0          0          0          0         
nodo215603       265.812    0.9        0          0          0         
nodo215604       265.276    1.2        0          0          0         
nodo215605       305.796    0.8        0          0          0         
nodo215606       305.789    1.1        0          0          0         
nodo215607       305.580    1.3        0          0          0         
nodo215608       305.671    0.9        0          0          0         
nodo215609       305.223    0.9        0          0          0         
nodo215610       305.176    1.1        0          0          0         
nodo215611       305.171    1.2        0          0          0         
nodo215612       305.161    1.5        0          0          0         
nodo215613       304.792    2.2        0          0          0         
nodo215614       304.762    2.1        0          0          0         
nodo215615       304.376    1.7        0          0          0         
nodo215616       304.239    1.2        0          0          0         
nodo215617       304.197    0.9        0          0          0         
nodo215618       328.044    0.3        0          0          0         
nodo215619       245.665    3          0          0          0         
nodo215620       246.129    1.9        0          0          0         
nodo215621       246.269    0.9        0          0          0         
nodo215622       246.335    0.4        0          0          0         
nodo215623       247.194    1.1        0          0          0         
nodo215624       249.084    1.1        0          0          0         
nodo215625       251.455    1.2        0          0          0         
nodo215626       253.152    1.1        0          0          0         
nodo215627       255.168    1          0          0          0         
nodo215628       257.148    0.9        0          0          0         
nodo215629       258.757    1          0          0          0         
nodo215630       259.961    1.1        0          0          0         
J1               265.002    1          0          0          0         
nodo215632       263.583    0.9        0          0          0         